1055
Au
Au  -14.2739   -6.1174   -4.0782
Au  -14.2738   -6.1173    0.0000
Au  -14.2738   -6.1173    4.0782
Au  -14.2738   -4.0782   -6.1173
Au  -14.2738   -4.0782   -2.0391
Au  -14.2738   -4.0782    2.0391
Au  -14.2738   -4.0782    6.1173
Au  -14.2738   -2.0391   -4.0782
Au  -14.2738   -2.0391    0.0000
Au  -14.2738   -2.0391    4.0782
Au  -14.2738    0.0000   -6.1173
Au  -14.2738    0.0000   -2.0391
Au  -14.2738    0.0000    2.0391
Au  -14.2738    0.0000    6.1173
Au  -14.2738    2.0391   -4.0782
Au  -14.2738    2.0391    0.0000
Au  -14.2738    2.0391    4.0782
Au  -14.2738    4.0782   -6.1173
Au  -14.2738    4.0782   -2.0391
Au  -14.2738    4.0782    2.0391
Au  -14.2738    4.0782    6.1173
Au  -14.2738    6.1173   -4.0782
Au  -14.2738    6.1173    0.0000
Au  -14.2738    6.1173    4.0782
Au  -12.2347   -8.1565   -8.1565
Au  -12.2347   -8.1565   -4.0782
Au  -12.2347   -8.1565    0.0000
Au  -12.2347   -8.1565    4.0782
Au  -12.2347   -8.1565    8.1565
Au  -12.2347   -6.1173   -6.1173
Au  -12.2347   -6.1173   -2.0391
Au  -12.2347   -6.1173    2.0391
Au  -12.2347   -6.1173    6.1173
Au  -12.2347   -4.0782   -8.1565
Au  -12.2347   -4.0782   -4.0782
Au  -12.2347   -4.0782    0.0000
Au  -12.2347   -4.0782    4.0782
Au  -12.2347   -4.0782    8.1565
Au  -12.2347   -2.0391   -6.1173
Au  -12.2347   -2.0391   -2.0391
Au  -12.2347   -2.0391    2.0391
Au  -12.2347   -2.0391    6.1173
Au  -12.2347    0.0000   -8.1565
Au  -12.2347    0.0000   -4.0782
Au  -12.2347    0.0000    0.0000
Au  -12.2347    0.0000    4.0782
Au  -12.2347    0.0000    8.1565
Au  -12.2347    2.0391   -6.1173
Au  -12.2347    2.0391   -2.0391
Au  -12.2347    2.0391    2.0391
Au  -12.2347    2.0391    6.1173
Au  -12.2347    4.0782   -8.1565
Au  -12.2347    4.0782   -4.0782
Au  -12.2347    4.0782    0.0000
Au  -12.2347    4.0782    4.0782
Au  -12.2347    4.0782    8.1565
Au  -12.2347    6.1173   -6.1173
Au  -12.2347    6.1173   -2.0391
Au  -12.2347    6.1173    2.0391
Au  -12.2347    6.1173    6.1173
Au  -12.2347    8.1565   -8.1565
Au  -12.2347    8.1565   -4.0782
Au  -12.2347    8.1565    0.0000
Au  -12.2347    8.1565    4.0782
Au  -12.2347    8.1565    8.1565
Au  -10.1955  -10.1955   -8.1565
Au  -10.1955  -10.1955   -4.0782
Au  -10.1955  -10.1955    0.0000
Au  -10.1955  -10.1955    4.0782
Au  -10.1955  -10.1955    8.1565
Au  -10.1955   -8.1565  -10.1955
Au  -10.1955   -8.1565   -6.1173
Au  -10.1955   -8.1565   -2.0391
Au  -10.1955   -8.1565    2.0391
Au  -10.1955   -8.1565    6.1173
Au  -10.1955   -8.1565   10.1955
Au  -10.1955   -6.1173   -8.1565
Au  -10.1955   -6.1173   -4.0782
Au  -10.1955   -6.1173    0.0000
Au  -10.1955   -6.1173    4.0782
Au  -10.1955   -6.1173    8.1565
Au  -10.1955   -4.0782  -10.1955
Au  -10.1955   -4.0782   -6.1173
Au  -10.1955   -4.0782   -2.0391
Au  -10.1955   -4.0782    2.0391
Au  -10.1955   -4.0782    6.1173
Au  -10.1955   -4.0782   10.1955
Au  -10.1955   -2.0391   -8.1565
Au  -10.1955   -2.0391   -4.0782
Au  -10.1955   -2.0391    0.0000
Au  -10.1955   -2.0391    4.0782
Au  -10.1955   -2.0391    8.1565
Au  -10.1955    0.0000  -10.1955
Au  -10.1955    0.0000   -6.1173
Au  -10.1955    0.0000   -2.0391
Au  -10.1955    0.0000    2.0391
Au  -10.1955    0.0000    6.1173
Au  -10.1955    0.0000   10.1955
Au  -10.1955    2.0391   -8.1565
Au  -10.1955    2.0391   -4.0782
Au  -10.1955    2.0391    0.0000
Au  -10.1955    2.0391    4.0782
Au  -10.1955    2.0391    8.1565
Au  -10.1955    4.0782  -10.1955
Au  -10.1955    4.0782   -6.1173
Au  -10.1955    4.0782   -2.0391
Au  -10.1955    4.0782    2.0391
Au  -10.1955    4.0782    6.1173
Au  -10.1955    4.0782   10.1955
Au  -10.1955    6.1173   -8.1565
Au  -10.1955    6.1173   -4.0782
Au  -10.1955    6.1173    0.0000
Au  -10.1955    6.1173    4.0782
Au  -10.1955    6.1173    8.1565
Au  -10.1955    8.1565  -10.1955
Au  -10.1955    8.1565   -6.1173
Au  -10.1955    8.1565   -2.0391
Au  -10.1955    8.1565    2.0391
Au  -10.1955    8.1565    6.1173
Au  -10.1955    8.1565   10.1955
Au  -10.1955   10.1955   -8.1565
Au  -10.1955   10.1955   -4.0782
Au  -10.1955   10.1955    0.0000
Au  -10.1955   10.1955    4.0782
Au  -10.1955   10.1955    8.1565
Au   -8.1565  -12.2347   -8.1565
Au   -8.1565  -12.2347   -4.0782
Au   -8.1565  -12.2347    0.0000
Au   -8.1565  -12.2347    4.0782
Au   -8.1565  -12.2347    8.1565
Au   -8.1565  -10.1955  -10.1955
Au   -8.1565  -10.1955   -6.1173
Au   -8.1565  -10.1955   -2.0391
Au   -8.1565  -10.1955    2.0391
Au   -8.1565  -10.1955    6.1173
Au   -8.1565  -10.1955   10.1955
Au   -8.1565   -8.1565  -12.2347
Au   -8.1565   -8.1565   -8.1565
Au   -8.1565   -8.1565   -4.0782
Au   -8.1565   -8.1565    0.0000
Au   -8.1565   -8.1565    4.0782
Au   -8.1565   -8.1565    8.1565
Au   -8.1565   -8.1565   12.2347
Au   -8.1565   -6.1173  -10.1955
Au   -8.1565   -6.1173   -6.1173
Au   -8.1565   -6.1173   -2.0391
Au   -8.1565   -6.1173    2.0391
Au   -8.1565   -6.1173    6.1173
Au   -8.1565   -6.1173   10.1955
Au   -8.1565   -4.0782  -12.2347
Au   -8.1565   -4.0782   -8.1565
Au   -8.1565   -4.0782   -4.0782
Au   -8.1565   -4.0782    0.0000
Au   -8.1565   -4.0782    4.0782
Au   -8.1565   -4.0782    8.1565
Au   -8.1565   -4.0782   12.2347
Au   -8.1565   -2.0391  -10.1955
Au   -8.1565   -2.0391   -6.1173
Au   -8.1565   -2.0391   -2.0391
Au   -8.1565   -2.0391    2.0391
Au   -8.1565   -2.0391    6.1173
Au   -8.1565   -2.0391   10.1955
Au   -8.1565    0.0000  -12.2347
Au   -8.1565    0.0000   -8.1565
Au   -8.1565    0.0000   -4.0782
Au   -8.1565    0.0000    0.0000
Au   -8.1565    0.0000    4.0782
Au   -8.1565    0.0000    8.1565
Au   -8.1565    0.0000   12.2347
Au   -8.1565    2.0391  -10.1955
Au   -8.1565    2.0391   -6.1173
Au   -8.1565    2.0391   -2.0391
Au   -8.1565    2.0391    2.0391
Au   -8.1565    2.0391    6.1173
Au   -8.1565    2.0391   10.1955
Au   -8.1565    4.0782  -12.2347
Au   -8.1565    4.0782   -8.1565
Au   -8.1565    4.0782   -4.0782
Au   -8.1565    4.0782    0.0000
Au   -8.1565    4.0782    4.0782
Au   -8.1565    4.0782    8.1565
Au   -8.1565    4.0782   12.2347
Au   -8.1565    6.1173  -10.1955
Au   -8.1565    6.1173   -6.1173
Au   -8.1565    6.1173   -2.0391
Au   -8.1565    6.1173    2.0391
Au   -8.1565    6.1173    6.1173
Au   -8.1565    6.1173   10.1955
Au   -8.1565    8.1565  -12.2347
Au   -8.1565    8.1565   -8.1565
Au   -8.1565    8.1565   -4.0782
Au   -8.1565    8.1565    0.0000
Au   -8.1565    8.1565    4.0782
Au   -8.1565    8.1565    8.1565
Au   -8.1565    8.1565   12.2347
Au   -8.1565   10.1955  -10.1955
Au   -8.1565   10.1955   -6.1173
Au   -8.1565   10.1955   -2.0391
Au   -8.1565   10.1955    2.0391
Au   -8.1565   10.1955    6.1173
Au   -8.1565   10.1955   10.1955
Au   -8.1565   12.2347   -8.1565
Au   -8.1565   12.2347   -4.0782
Au   -8.1565   12.2347    0.0000
Au   -8.1565   12.2347    4.0782
Au   -8.1565   12.2347    8.1565
Au   -6.1173  -14.2738   -4.0782
Au   -6.1173  -14.2738    0.0000
Au   -6.1173  -14.2738    4.0782
Au   -6.1173  -12.2347   -6.1173
Au   -6.1173  -12.2347   -2.0391
Au   -6.1173  -12.2347    2.0391
Au   -6.1173  -12.2347    6.1173
Au   -6.1173  -10.1955   -8.1565
Au   -6.1173  -10.1955   -4.0782
Au   -6.1173  -10.1955    0.0000
Au   -6.1173  -10.1955    4.0782
Au   -6.1173  -10.1955    8.1565
Au   -6.1173   -8.1565  -10.1955
Au   -6.1173   -8.1565   -6.1173
Au   -6.1173   -8.1565   -2.0391
Au   -6.1173   -8.1565    2.0391
Au   -6.1173   -8.1565    6.1173
Au   -6.1173   -8.1565   10.1955
Au   -6.1173   -6.1173  -12.2347
Au   -6.1173   -6.1173   -8.1565
Au   -6.1173   -6.1173   -4.0782
Au   -6.1173   -6.1173    0.0000
Au   -6.1173   -6.1173    4.0782
Au   -6.1173   -6.1173    8.1565
Au   -6.1173   -6.1173   12.2347
Au   -6.1173   -4.0782  -14.2738
Au   -6.1173   -4.0782  -10.1955
Au   -6.1173   -4.0782   -6.1173
Au   -6.1173   -4.0782   -2.0391
Au   -6.1173   -4.0782    2.0391
Au   -6.1173   -4.0782    6.1173
Au   -6.1173   -4.0782   10.1955
Au   -6.1173   -4.0782   14.2738
Au   -6.1173   -2.0391  -12.2347
Au   -6.1173   -2.0391   -8.1565
Au   -6.1173   -2.0391   -4.0782
Au   -6.1173   -2.0391    0.0000
Au   -6.1173   -2.0391    4.0782
Au   -6.1173   -2.0391    8.1565
Au   -6.1173   -2.0391   12.2347
Au   -6.1173    0.0000  -14.2738
Au   -6.1173    0.0000  -10.1955
Au   -6.1173    0.0000   -6.1173
Au   -6.1173    0.0000   -2.0391
Au   -6.1173    0.0000    2.0391
Au   -6.1173    0.0000    6.1173
Au   -6.1173    0.0000   10.1955
Au   -6.1173    0.0000   14.2738
Au   -6.1173    2.0391  -12.2347
Au   -6.1173    2.0391   -8.1565
Au   -6.1173    2.0391   -4.0782
Au   -6.1173    2.0391    0.0000
Au   -6.1173    2.0391    4.0782
Au   -6.1173    2.0391    8.1565
Au   -6.1173    2.0391   12.2347
Au   -6.1173    4.0782  -14.2738
Au   -6.1173    4.0782  -10.1955
Au   -6.1173    4.0782   -6.1173
Au   -6.1173    4.0782   -2.0391
Au   -6.1173    4.0782    2.0391
Au   -6.1173    4.0782    6.1173
Au   -6.1173    4.0782   10.1955
Au   -6.1173    4.0782   14.2738
Au   -6.1173    6.1173  -12.2347
Au   -6.1173    6.1173   -8.1565
Au   -6.1173    6.1173   -4.0782
Au   -6.1173    6.1173    0.0000
Au   -6.1173    6.1173    4.0782
Au   -6.1173    6.1173    8.1565
Au   -6.1173    6.1173   12.2347
Au   -6.1173    8.1565  -10.1955
Au   -6.1173    8.1565   -6.1173
Au   -6.1173    8.1565   -2.0391
Au   -6.1173    8.1565    2.0391
Au   -6.1173    8.1565    6.1173
Au   -6.1173    8.1565   10.1955
Au   -6.1173   10.1955   -8.1565
Au   -6.1173   10.1955   -4.0782
Au   -6.1173   10.1955    0.0000
Au   -6.1173   10.1955    4.0782
Au   -6.1173   10.1955    8.1565
Au   -6.1173   12.2347   -6.1173
Au   -6.1173   12.2347   -2.0391
Au   -6.1173   12.2347    2.0391
Au   -6.1173   12.2347    6.1173
Au   -6.1173   14.2738   -4.0782
Au   -6.1173   14.2738    0.0000
Au   -6.1173   14.2738    4.0782
Au   -4.0782  -14.2738   -6.1173
Au   -4.0782  -14.2738   -2.0391
Au   -4.0782  -14.2738    2.0391
Au   -4.0782  -14.2738    6.1173
Au   -4.0782  -12.2347   -8.1565
Au   -4.0782  -12.2347   -4.0782
Au   -4.0782  -12.2347    0.0000
Au   -4.0782  -12.2347    4.0782
Au   -4.0782  -12.2347    8.1565
Au   -4.0782  -10.1955  -10.1955
Au   -4.0782  -10.1955   -6.1173
Au   -4.0782  -10.1955   -2.0391
Au   -4.0782  -10.1955    2.0391
Au   -4.0782  -10.1955    6.1173
Au   -4.0782  -10.1955   10.1955
Au   -4.0782   -8.1565  -12.2347
Au   -4.0782   -8.1565   -8.1565
Au   -4.0782   -8.1565   -4.0782
Au   -4.0782   -8.1565    0.0000
Au   -4.0782   -8.1565    4.0782
Au   -4.0782   -8.1565    8.1565
Au   -4.0782   -8.1565   12.2347
Au   -4.0782   -6.1173  -14.2738
Au   -4.0782   -6.1173  -10.1955
Au   -4.0782   -6.1173   -6.1173
Au   -4.0782   -6.1173   -2.0391
Au   -4.0782   -6.1173    2.0391
Au   -4.0782   -6.1173    6.1173
Au   -4.0782   -6.1173   10.1955
Au   -4.0782   -6.1173   14.2738
Au   -4.0782   -4.0782  -12.2347
Au   -4.0782   -4.0782   -8.1565
Au   -4.0782   -4.0782   -4.0782
Au   -4.0782   -4.0782    0.0000
Au   -4.0782   -4.0782    4.0782
Au   -4.0782   -4.0782    8.1565
Au   -4.0782   -4.0782   12.2347
Au   -4.0782   -2.0391  -14.2738
Au   -4.0782   -2.0391  -10.1955
Au   -4.0782   -2.0391   -6.1173
Au   -4.0782   -2.0391   -2.0391
Au   -4.0782   -2.0391    2.0391
Au   -4.0782   -2.0391    6.1173
Au   -4.0782   -2.0391   10.1955
Au   -4.0782   -2.0391   14.2738
Au   -4.0782    0.0000  -12.2347
Au   -4.0782    0.0000   -8.1565
Au   -4.0782    0.0000   -4.0782
Au   -4.0782    0.0000    0.0000
Au   -4.0782    0.0000    4.0782
Au   -4.0782    0.0000    8.1565
Au   -4.0782    0.0000   12.2347
Au   -4.0782    2.0391  -14.2738
Au   -4.0782    2.0391  -10.1955
Au   -4.0782    2.0391   -6.1173
Au   -4.0782    2.0391   -2.0391
Au   -4.0782    2.0391    2.0391
Au   -4.0782    2.0391    6.1173
Au   -4.0782    2.0391   10.1955
Au   -4.0782    2.0391   14.2738
Au   -4.0782    4.0782  -12.2347
Au   -4.0782    4.0782   -8.1565
Au   -4.0782    4.0782   -4.0782
Au   -4.0782    4.0782    0.0000
Au   -4.0782    4.0782    4.0782
Au   -4.0782    4.0782    8.1565
Au   -4.0782    4.0782   12.2347
Au   -4.0782    6.1173  -14.2738
Au   -4.0782    6.1173  -10.1955
Au   -4.0782    6.1173   -6.1173
Au   -4.0782    6.1173   -2.0391
Au   -4.0782    6.1173    2.0391
Au   -4.0782    6.1173    6.1173
Au   -4.0782    6.1173   10.1955
Au   -4.0782    6.1173   14.2738
Au   -4.0782    8.1565  -12.2347
Au   -4.0782    8.1565   -8.1565
Au   -4.0782    8.1565   -4.0782
Au   -4.0782    8.1565    0.0000
Au   -4.0782    8.1565    4.0782
Au   -4.0782    8.1565    8.1565
Au   -4.0782    8.1565   12.2347
Au   -4.0782   10.1955  -10.1955
Au   -4.0782   10.1955   -6.1173
Au   -4.0782   10.1955   -2.0391
Au   -4.0782   10.1955    2.0391
Au   -4.0782   10.1955    6.1173
Au   -4.0782   10.1955   10.1955
Au   -4.0782   12.2347   -8.1565
Au   -4.0782   12.2347   -4.0782
Au   -4.0782   12.2347    0.0000
Au   -4.0782   12.2347    4.0782
Au   -4.0782   12.2347    8.1565
Au   -4.0782   14.2738   -6.1173
Au   -4.0782   14.2738   -2.0391
Au   -4.0782   14.2738    2.0391
Au   -4.0782   14.2738    6.1173
Au   -2.0391  -14.2738   -4.0782
Au   -2.0391  -14.2738    0.0000
Au   -2.0391  -14.2738    4.0782
Au   -2.0391  -12.2347   -6.1173
Au   -2.0391  -12.2347   -2.0391
Au   -2.0391  -12.2347    2.0391
Au   -2.0391  -12.2347    6.1173
Au   -2.0391  -10.1955   -8.1565
Au   -2.0391  -10.1955   -4.0782
Au   -2.0391  -10.1955    0.0000
Au   -2.0391  -10.1955    4.0782
Au   -2.0391  -10.1955    8.1565
Au   -2.0391   -8.1565  -10.1955
Au   -2.0391   -8.1565   -6.1173
Au   -2.0391   -8.1565   -2.0391
Au   -2.0391   -8.1565    2.0391
Au   -2.0391   -8.1565    6.1173
Au   -2.0391   -8.1565   10.1955
Au   -2.0391   -6.1173  -12.2347
Au   -2.0391   -6.1173   -8.1565
Au   -2.0391   -6.1173   -4.0782
Au   -2.0391   -6.1173    0.0000
Au   -2.0391   -6.1173    4.0782
Au   -2.0391   -6.1173    8.1565
Au   -2.0391   -6.1173   12.2347
Au   -2.0391   -4.0782  -14.2738
Au   -2.0391   -4.0782  -10.1955
Au   -2.0391   -4.0782   -6.1173
Au   -2.0391   -4.0782   -2.0391
Au   -2.0391   -4.0782    2.0391
Au   -2.0391   -4.0782    6.1173
Au   -2.0391   -4.0782   10.1955
Au   -2.0391   -4.0782   14.2738
Au   -2.0391   -2.0391  -12.2347
Au   -2.0391   -2.0391   -8.1565
Au   -2.0391   -2.0391   -4.0782
Au   -2.0391   -2.0391    0.0000
Au   -2.0391   -2.0391    4.0782
Au   -2.0391   -2.0391    8.1565
Au   -2.0391   -2.0391   12.2347
Au   -2.0391    0.0000  -14.2738
Au   -2.0391    0.0000  -10.1955
Au   -2.0391    0.0000   -6.1173
Au   -2.0391    0.0000   -2.0391
Au   -2.0391    0.0000    2.0391
Au   -2.0391    0.0000    6.1173
Au   -2.0391    0.0000   10.1955
Au   -2.0391    0.0000   14.2738
Au   -2.0391    2.0391  -12.2347
Au   -2.0391    2.0391   -8.1565
Au   -2.0391    2.0391   -4.0782
Au   -2.0391    2.0391    0.0000
Au   -2.0391    2.0391    4.0782
Au   -2.0391    2.0391    8.1565
Au   -2.0391    2.0391   12.2347
Au   -2.0391    4.0782  -14.2738
Au   -2.0391    4.0782  -10.1955
Au   -2.0391    4.0782   -6.1173
Au   -2.0391    4.0782   -2.0391
Au   -2.0391    4.0782    2.0391
Au   -2.0391    4.0782    6.1173
Au   -2.0391    4.0782   10.1955
Au   -2.0391    4.0782   14.2738
Au   -2.0391    6.1173  -12.2347
Au   -2.0391    6.1173   -8.1565
Au   -2.0391    6.1173   -4.0782
Au   -2.0391    6.1173    0.0000
Au   -2.0391    6.1173    4.0782
Au   -2.0391    6.1173    8.1565
Au   -2.0391    6.1173   12.2347
Au   -2.0391    8.1565  -10.1955
Au   -2.0391    8.1565   -6.1173
Au   -2.0391    8.1565   -2.0391
Au   -2.0391    8.1565    2.0391
Au   -2.0391    8.1565    6.1173
Au   -2.0391    8.1565   10.1955
Au   -2.0391   10.1955   -8.1565
Au   -2.0391   10.1955   -4.0782
Au   -2.0391   10.1955    0.0000
Au   -2.0391   10.1955    4.0782
Au   -2.0391   10.1955    8.1565
Au   -2.0391   12.2347   -6.1173
Au   -2.0391   12.2347   -2.0391
Au   -2.0391   12.2347    2.0391
Au   -2.0391   12.2347    6.1173
Au   -2.0391   14.2738   -4.0782
Au   -2.0391   14.2738    0.0000
Au   -2.0391   14.2738    4.0782
Au    0.0000  -14.2738   -6.1173
Au    0.0000  -14.2738   -2.0391
Au    0.0000  -14.2738    2.0391
Au    0.0000  -14.2738    6.1173
Au    0.0000  -12.2347   -8.1565
Au    0.0000  -12.2347   -4.0782
Au    0.0000  -12.2347    0.0000
Au    0.0000  -12.2347    4.0782
Au    0.0000  -12.2347    8.1565
Au    0.0000  -10.1955  -10.1955
Au    0.0000  -10.1955   -6.1173
Au    0.0000  -10.1955   -2.0391
Au    0.0000  -10.1955    2.0391
Au    0.0000  -10.1955    6.1173
Au    0.0000  -10.1955   10.1955
Au    0.0000   -8.1565  -12.2347
Au    0.0000   -8.1565   -8.1565
Au    0.0000   -8.1565   -4.0782
Au    0.0000   -8.1565    0.0000
Au    0.0000   -8.1565    4.0782
Au    0.0000   -8.1565    8.1565
Au    0.0000   -8.1565   12.2347
Au    0.0000   -6.1173  -14.2738
Au    0.0000   -6.1173  -10.1955
Au    0.0000   -6.1173   -6.1173
Au    0.0000   -6.1173   -2.0391
Au    0.0000   -6.1173    2.0391
Au    0.0000   -6.1173    6.1173
Au    0.0000   -6.1173   10.1955
Au    0.0000   -6.1173   14.2738
Au    0.0000   -4.0782  -12.2347
Au    0.0000   -4.0782   -8.1565
Au    0.0000   -4.0782   -4.0782
Au    0.0000   -4.0782    0.0000
Au    0.0000   -4.0782    4.0782
Au    0.0000   -4.0782    8.1565
Au    0.0000   -4.0782   12.2347
Au    0.0000   -2.0391  -14.2738
Au    0.0000   -2.0391  -10.1955
Au    0.0000   -2.0391   -6.1173
Au    0.0000   -2.0391   -2.0391
Au    0.0000   -2.0391    2.0391
Au    0.0000   -2.0391    6.1173
Au    0.0000   -2.0391   10.1955
Au    0.0000   -2.0391   14.2738
Au    0.0000    0.0000  -12.2347
Au    0.0000    0.0000   -8.1565
Au    0.0000    0.0000   -4.0782
Au    0.0000    0.0000    0.0000
Au    0.0000    0.0000    4.0782
Au    0.0000    0.0000    8.1565
Au    0.0000    0.0000   12.2347
Au    0.0000    2.0391  -14.2738
Au    0.0000    2.0391  -10.1955
Au    0.0000    2.0391   -6.1173
Au    0.0000    2.0391   -2.0391
Au    0.0000    2.0391    2.0391
Au    0.0000    2.0391    6.1173
Au    0.0000    2.0391   10.1955
Au    0.0000    2.0391   14.2738
Au    0.0000    4.0782  -12.2347
Au    0.0000    4.0782   -8.1565
Au    0.0000    4.0782   -4.0782
Au    0.0000    4.0782    0.0000
Au    0.0000    4.0782    4.0782
Au    0.0000    4.0782    8.1565
Au    0.0000    4.0782   12.2347
Au    0.0000    6.1173  -14.2738
Au    0.0000    6.1173  -10.1955
Au    0.0000    6.1173   -6.1173
Au    0.0000    6.1173   -2.0391
Au    0.0000    6.1173    2.0391
Au    0.0000    6.1173    6.1173
Au    0.0000    6.1173   10.1955
Au    0.0000    6.1173   14.2738
Au    0.0000    8.1565  -12.2347
Au    0.0000    8.1565   -8.1565
Au    0.0000    8.1565   -4.0782
Au    0.0000    8.1565    0.0000
Au    0.0000    8.1565    4.0782
Au    0.0000    8.1565    8.1565
Au    0.0000    8.1565   12.2347
Au    0.0000   10.1955  -10.1955
Au    0.0000   10.1955   -6.1173
Au    0.0000   10.1955   -2.0391
Au    0.0000   10.1955    2.0391
Au    0.0000   10.1955    6.1173
Au    0.0000   10.1955   10.1955
Au    0.0000   12.2347   -8.1565
Au    0.0000   12.2347   -4.0782
Au    0.0000   12.2347    0.0000
Au    0.0000   12.2347    4.0782
Au    0.0000   12.2347    8.1565
Au    0.0000   14.2738   -6.1173
Au    0.0000   14.2738   -2.0391
Au    0.0000   14.2738    2.0391
Au    0.0000   14.2738    6.1173
Au    2.0391  -14.2738   -4.0782
Au    2.0391  -14.2738    0.0000
Au    2.0391  -14.2738    4.0782
Au    2.0391  -12.2347   -6.1173
Au    2.0391  -12.2347   -2.0391
Au    2.0391  -12.2347    2.0391
Au    2.0391  -12.2347    6.1173
Au    2.0391  -10.1955   -8.1565
Au    2.0391  -10.1955   -4.0782
Au    2.0391  -10.1955    0.0000
Au    2.0391  -10.1955    4.0782
Au    2.0391  -10.1955    8.1565
Au    2.0391   -8.1565  -10.1955
Au    2.0391   -8.1565   -6.1173
Au    2.0391   -8.1565   -2.0391
Au    2.0391   -8.1565    2.0391
Au    2.0391   -8.1565    6.1173
Au    2.0391   -8.1565   10.1955
Au    2.0391   -6.1173  -12.2347
Au    2.0391   -6.1173   -8.1565
Au    2.0391   -6.1173   -4.0782
Au    2.0391   -6.1173    0.0000
Au    2.0391   -6.1173    4.0782
Au    2.0391   -6.1173    8.1565
Au    2.0391   -6.1173   12.2347
Au    2.0391   -4.0782  -14.2738
Au    2.0391   -4.0782  -10.1955
Au    2.0391   -4.0782   -6.1173
Au    2.0391   -4.0782   -2.0391
Au    2.0391   -4.0782    2.0391
Au    2.0391   -4.0782    6.1173
Au    2.0391   -4.0782   10.1955
Au    2.0391   -4.0782   14.2738
Au    2.0391   -2.0391  -12.2347
Au    2.0391   -2.0391   -8.1565
Au    2.0391   -2.0391   -4.0782
Au    2.0391   -2.0391    0.0000
Au    2.0391   -2.0391    4.0782
Au    2.0391   -2.0391    8.1565
Au    2.0391   -2.0391   12.2347
Au    2.0391    0.0000  -14.2738
Au    2.0391    0.0000  -10.1955
Au    2.0391    0.0000   -6.1173
Au    2.0391    0.0000   -2.0391
Au    2.0391    0.0000    2.0391
Au    2.0391    0.0000    6.1173
Au    2.0391    0.0000   10.1955
Au    2.0391    0.0000   14.2738
Au    2.0391    2.0391  -12.2347
Au    2.0391    2.0391   -8.1565
Au    2.0391    2.0391   -4.0782
Au    2.0391    2.0391    0.0000
Au    2.0391    2.0391    4.0782
Au    2.0391    2.0391    8.1565
Au    2.0391    2.0391   12.2347
Au    2.0391    4.0782  -14.2738
Au    2.0391    4.0782  -10.1955
Au    2.0391    4.0782   -6.1173
Au    2.0391    4.0782   -2.0391
Au    2.0391    4.0782    2.0391
Au    2.0391    4.0782    6.1173
Au    2.0391    4.0782   10.1955
Au    2.0391    4.0782   14.2738
Au    2.0391    6.1173  -12.2347
Au    2.0391    6.1173   -8.1565
Au    2.0391    6.1173   -4.0782
Au    2.0391    6.1173    0.0000
Au    2.0391    6.1173    4.0782
Au    2.0391    6.1173    8.1565
Au    2.0391    6.1173   12.2347
Au    2.0391    8.1565  -10.1955
Au    2.0391    8.1565   -6.1173
Au    2.0391    8.1565   -2.0391
Au    2.0391    8.1565    2.0391
Au    2.0391    8.1565    6.1173
Au    2.0391    8.1565   10.1955
Au    2.0391   10.1955   -8.1565
Au    2.0391   10.1955   -4.0782
Au    2.0391   10.1955    0.0000
Au    2.0391   10.1955    4.0782
Au    2.0391   10.1955    8.1565
Au    2.0391   12.2347   -6.1173
Au    2.0391   12.2347   -2.0391
Au    2.0391   12.2347    2.0391
Au    2.0391   12.2347    6.1173
Au    2.0391   14.2738   -4.0782
Au    2.0391   14.2738    0.0000
Au    2.0391   14.2738    4.0782
Au    4.0782  -14.2738   -6.1173
Au    4.0782  -14.2738   -2.0391
Au    4.0782  -14.2738    2.0391
Au    4.0782  -14.2738    6.1173
Au    4.0782  -12.2347   -8.1565
Au    4.0782  -12.2347   -4.0782
Au    4.0782  -12.2347    0.0000
Au    4.0782  -12.2347    4.0782
Au    4.0782  -12.2347    8.1565
Au    4.0782  -10.1955  -10.1955
Au    4.0782  -10.1955   -6.1173
Au    4.0782  -10.1955   -2.0391
Au    4.0782  -10.1955    2.0391
Au    4.0782  -10.1955    6.1173
Au    4.0782  -10.1955   10.1955
Au    4.0782   -8.1565  -12.2347
Au    4.0782   -8.1565   -8.1565
Au    4.0782   -8.1565   -4.0782
Au    4.0782   -8.1565    0.0000
Au    4.0782   -8.1565    4.0782
Au    4.0782   -8.1565    8.1565
Au    4.0782   -8.1565   12.2347
Au    4.0782   -6.1173  -14.2738
Au    4.0782   -6.1173  -10.1955
Au    4.0782   -6.1173   -6.1173
Au    4.0782   -6.1173   -2.0391
Au    4.0782   -6.1173    2.0391
Au    4.0782   -6.1173    6.1173
Au    4.0782   -6.1173   10.1955
Au    4.0782   -6.1173   14.2738
Au    4.0782   -4.0782  -12.2347
Au    4.0782   -4.0782   -8.1565
Au    4.0782   -4.0782   -4.0782
Au    4.0782   -4.0782    0.0000
Au    4.0782   -4.0782    4.0782
Au    4.0782   -4.0782    8.1565
Au    4.0782   -4.0782   12.2347
Au    4.0782   -2.0391  -14.2738
Au    4.0782   -2.0391  -10.1955
Au    4.0782   -2.0391   -6.1173
Au    4.0782   -2.0391   -2.0391
Au    4.0782   -2.0391    2.0391
Au    4.0782   -2.0391    6.1173
Au    4.0782   -2.0391   10.1955
Au    4.0782   -2.0391   14.2738
Au    4.0782    0.0000  -12.2347
Au    4.0782    0.0000   -8.1565
Au    4.0782    0.0000   -4.0782
Au    4.0782    0.0000    0.0000
Au    4.0782    0.0000    4.0782
Au    4.0782    0.0000    8.1565
Au    4.0782    0.0000   12.2347
Au    4.0782    2.0391  -14.2738
Au    4.0782    2.0391  -10.1955
Au    4.0782    2.0391   -6.1173
Au    4.0782    2.0391   -2.0391
Au    4.0782    2.0391    2.0391
Au    4.0782    2.0391    6.1173
Au    4.0782    2.0391   10.1955
Au    4.0782    2.0391   14.2738
Au    4.0782    4.0782  -12.2347
Au    4.0782    4.0782   -8.1565
Au    4.0782    4.0782   -4.0782
Au    4.0782    4.0782    0.0000
Au    4.0782    4.0782    4.0782
Au    4.0782    4.0782    8.1565
Au    4.0782    4.0782   12.2347
Au    4.0782    6.1173  -14.2738
Au    4.0782    6.1173  -10.1955
Au    4.0782    6.1173   -6.1173
Au    4.0782    6.1173   -2.0391
Au    4.0782    6.1173    2.0391
Au    4.0782    6.1173    6.1173
Au    4.0782    6.1173   10.1955
Au    4.0782    6.1173   14.2738
Au    4.0782    8.1565  -12.2347
Au    4.0782    8.1565   -8.1565
Au    4.0782    8.1565   -4.0782
Au    4.0782    8.1565    0.0000
Au    4.0782    8.1565    4.0782
Au    4.0782    8.1565    8.1565
Au    4.0782    8.1565   12.2347
Au    4.0782   10.1955  -10.1955
Au    4.0782   10.1955   -6.1173
Au    4.0782   10.1955   -2.0391
Au    4.0782   10.1955    2.0391
Au    4.0782   10.1955    6.1173
Au    4.0782   10.1955   10.1955
Au    4.0782   12.2347   -8.1565
Au    4.0782   12.2347   -4.0782
Au    4.0782   12.2347    0.0000
Au    4.0782   12.2347    4.0782
Au    4.0782   12.2347    8.1565
Au    4.0782   14.2738   -6.1173
Au    4.0782   14.2738   -2.0391
Au    4.0782   14.2738    2.0391
Au    4.0782   14.2738    6.1173
Au    6.1173  -14.2738   -4.0782
Au    6.1173  -14.2738    0.0000
Au    6.1173  -14.2738    4.0782
Au    6.1173  -12.2347   -6.1173
Au    6.1173  -12.2347   -2.0391
Au    6.1173  -12.2347    2.0391
Au    6.1173  -12.2347    6.1173
Au    6.1173  -10.1955   -8.1565
Au    6.1173  -10.1955   -4.0782
Au    6.1173  -10.1955    0.0000
Au    6.1173  -10.1955    4.0782
Au    6.1173  -10.1955    8.1565
Au    6.1173   -8.1565  -10.1955
Au    6.1173   -8.1565   -6.1173
Au    6.1173   -8.1565   -2.0391
Au    6.1173   -8.1565    2.0391
Au    6.1173   -8.1565    6.1173
Au    6.1173   -8.1565   10.1955
Au    6.1173   -6.1173  -12.2347
Au    6.1173   -6.1173   -8.1565
Au    6.1173   -6.1173   -4.0782
Au    6.1173   -6.1173    0.0000
Au    6.1173   -6.1173    4.0782
Au    6.1173   -6.1173    8.1565
Au    6.1173   -6.1173   12.2347
Au    6.1173   -4.0782  -14.2738
Au    6.1173   -4.0782  -10.1955
Au    6.1173   -4.0782   -6.1173
Au    6.1173   -4.0782   -2.0391
Au    6.1173   -4.0782    2.0391
Au    6.1173   -4.0782    6.1173
Au    6.1173   -4.0782   10.1955
Au    6.1173   -4.0782   14.2738
Au    6.1173   -2.0391  -12.2347
Au    6.1173   -2.0391   -8.1565
Au    6.1173   -2.0391   -4.0782
Au    6.1173   -2.0391    0.0000
Au    6.1173   -2.0391    4.0782
Au    6.1173   -2.0391    8.1565
Au    6.1173   -2.0391   12.2347
Au    6.1173    0.0000  -14.2738
Au    6.1173    0.0000  -10.1955
Au    6.1173    0.0000   -6.1173
Au    6.1173    0.0000   -2.0391
Au    6.1173    0.0000    2.0391
Au    6.1173    0.0000    6.1173
Au    6.1173    0.0000   10.1955
Au    6.1173    0.0000   14.2738
Au    6.1173    2.0391  -12.2347
Au    6.1173    2.0391   -8.1565
Au    6.1173    2.0391   -4.0782
Au    6.1173    2.0391    0.0000
Au    6.1173    2.0391    4.0782
Au    6.1173    2.0391    8.1565
Au    6.1173    2.0391   12.2347
Au    6.1173    4.0782  -14.2738
Au    6.1173    4.0782  -10.1955
Au    6.1173    4.0782   -6.1173
Au    6.1173    4.0782   -2.0391
Au    6.1173    4.0782    2.0391
Au    6.1173    4.0782    6.1173
Au    6.1173    4.0782   10.1955
Au    6.1173    4.0782   14.2738
Au    6.1173    6.1173  -12.2347
Au    6.1173    6.1173   -8.1565
Au    6.1173    6.1173   -4.0782
Au    6.1173    6.1173    0.0000
Au    6.1173    6.1173    4.0782
Au    6.1173    6.1173    8.1565
Au    6.1173    6.1173   12.2347
Au    6.1173    8.1565  -10.1955
Au    6.1173    8.1565   -6.1173
Au    6.1173    8.1565   -2.0391
Au    6.1173    8.1565    2.0391
Au    6.1173    8.1565    6.1173
Au    6.1173    8.1565   10.1955
Au    6.1173   10.1955   -8.1565
Au    6.1173   10.1955   -4.0782
Au    6.1173   10.1955    0.0000
Au    6.1173   10.1955    4.0782
Au    6.1173   10.1955    8.1565
Au    6.1173   12.2347   -6.1173
Au    6.1173   12.2347   -2.0391
Au    6.1173   12.2347    2.0391
Au    6.1173   12.2347    6.1173
Au    6.1173   14.2738   -4.0782
Au    6.1173   14.2738    0.0000
Au    6.1173   14.2738    4.0782
Au    8.1565  -12.2347   -8.1565
Au    8.1565  -12.2347   -4.0782
Au    8.1565  -12.2347    0.0000
Au    8.1565  -12.2347    4.0782
Au    8.1565  -12.2347    8.1565
Au    8.1565  -10.1955  -10.1955
Au    8.1565  -10.1955   -6.1173
Au    8.1565  -10.1955   -2.0391
Au    8.1565  -10.1955    2.0391
Au    8.1565  -10.1955    6.1173
Au    8.1565  -10.1955   10.1955
Au    8.1565   -8.1565  -12.2347
Au    8.1565   -8.1565   -8.1565
Au    8.1565   -8.1565   -4.0782
Au    8.1565   -8.1565    0.0000
Au    8.1565   -8.1565    4.0782
Au    8.1565   -8.1565    8.1565
Au    8.1565   -8.1565   12.2347
Au    8.1565   -6.1173  -10.1955
Au    8.1565   -6.1173   -6.1173
Au    8.1565   -6.1173   -2.0391
Au    8.1565   -6.1173    2.0391
Au    8.1565   -6.1173    6.1173
Au    8.1565   -6.1173   10.1955
Au    8.1565   -4.0782  -12.2347
Au    8.1565   -4.0782   -8.1565
Au    8.1565   -4.0782   -4.0782
Au    8.1565   -4.0782    0.0000
Au    8.1565   -4.0782    4.0782
Au    8.1565   -4.0782    8.1565
Au    8.1565   -4.0782   12.2347
Au    8.1565   -2.0391  -10.1955
Au    8.1565   -2.0391   -6.1173
Au    8.1565   -2.0391   -2.0391
Au    8.1565   -2.0391    2.0391
Au    8.1565   -2.0391    6.1173
Au    8.1565   -2.0391   10.1955
Au    8.1565    0.0000  -12.2347
Au    8.1565    0.0000   -8.1565
Au    8.1565    0.0000   -4.0782
Au    8.1565    0.0000    0.0000
Au    8.1565    0.0000    4.0782
Au    8.1565    0.0000    8.1565
Au    8.1565    0.0000   12.2347
Au    8.1565    2.0391  -10.1955
Au    8.1565    2.0391   -6.1173
Au    8.1565    2.0391   -2.0391
Au    8.1565    2.0391    2.0391
Au    8.1565    2.0391    6.1173
Au    8.1565    2.0391   10.1955
Au    8.1565    4.0782  -12.2347
Au    8.1565    4.0782   -8.1565
Au    8.1565    4.0782   -4.0782
Au    8.1565    4.0782    0.0000
Au    8.1565    4.0782    4.0782
Au    8.1565    4.0782    8.1565
Au    8.1565    4.0782   12.2347
Au    8.1565    6.1173  -10.1955
Au    8.1565    6.1173   -6.1173
Au    8.1565    6.1173   -2.0391
Au    8.1565    6.1173    2.0391
Au    8.1565    6.1173    6.1173
Au    8.1565    6.1173   10.1955
Au    8.1565    8.1565  -12.2347
Au    8.1565    8.1565   -8.1565
Au    8.1565    8.1565   -4.0782
Au    8.1565    8.1565    0.0000
Au    8.1565    8.1565    4.0782
Au    8.1565    8.1565    8.1565
Au    8.1565    8.1565   12.2347
Au    8.1565   10.1955  -10.1955
Au    8.1565   10.1955   -6.1173
Au    8.1565   10.1955   -2.0391
Au    8.1565   10.1955    2.0391
Au    8.1565   10.1955    6.1173
Au    8.1565   10.1955   10.1955
Au    8.1565   12.2347   -8.1565
Au    8.1565   12.2347   -4.0782
Au    8.1565   12.2347    0.0000
Au    8.1565   12.2347    4.0782
Au    8.1565   12.2347    8.1565
Au   10.1955  -10.1955   -8.1565
Au   10.1955  -10.1955   -4.0782
Au   10.1955  -10.1955    0.0000
Au   10.1955  -10.1955    4.0782
Au   10.1955  -10.1955    8.1565
Au   10.1955   -8.1565  -10.1955
Au   10.1955   -8.1565   -6.1173
Au   10.1955   -8.1565   -2.0391
Au   10.1955   -8.1565    2.0391
Au   10.1955   -8.1565    6.1173
Au   10.1955   -8.1565   10.1955
Au   10.1955   -6.1173   -8.1565
Au   10.1955   -6.1173   -4.0782
Au   10.1955   -6.1173    0.0000
Au   10.1955   -6.1173    4.0782
Au   10.1955   -6.1173    8.1565
Au   10.1955   -4.0782  -10.1955
Au   10.1955   -4.0782   -6.1173
Au   10.1955   -4.0782   -2.0391
Au   10.1955   -4.0782    2.0391
Au   10.1955   -4.0782    6.1173
Au   10.1955   -4.0782   10.1955
Au   10.1955   -2.0391   -8.1565
Au   10.1955   -2.0391   -4.0782
Au   10.1955   -2.0391    0.0000
Au   10.1955   -2.0391    4.0782
Au   10.1955   -2.0391    8.1565
Au   10.1955    0.0000  -10.1955
Au   10.1955    0.0000   -6.1173
Au   10.1955    0.0000   -2.0391
Au   10.1955    0.0000    2.0391
Au   10.1955    0.0000    6.1173
Au   10.1955    0.0000   10.1955
Au   10.1955    2.0391   -8.1565
Au   10.1955    2.0391   -4.0782
Au   10.1955    2.0391    0.0000
Au   10.1955    2.0391    4.0782
Au   10.1955    2.0391    8.1565
Au   10.1955    4.0782  -10.1955
Au   10.1955    4.0782   -6.1173
Au   10.1955    4.0782   -2.0391
Au   10.1955    4.0782    2.0391
Au   10.1955    4.0782    6.1173
Au   10.1955    4.0782   10.1955
Au   10.1955    6.1173   -8.1565
Au   10.1955    6.1173   -4.0782
Au   10.1955    6.1173    0.0000
Au   10.1955    6.1173    4.0782
Au   10.1955    6.1173    8.1565
Au   10.1955    8.1565  -10.1955
Au   10.1955    8.1565   -6.1173
Au   10.1955    8.1565   -2.0391
Au   10.1955    8.1565    2.0391
Au   10.1955    8.1565    6.1173
Au   10.1955    8.1565   10.1955
Au   10.1955   10.1955   -8.1565
Au   10.1955   10.1955   -4.0782
Au   10.1955   10.1955    0.0000
Au   10.1955   10.1955    4.0782
Au   10.1955   10.1955    8.1565
Au   12.2347   -8.1565   -8.1565
Au   12.2347   -8.1565   -4.0782
Au   12.2347   -8.1565    0.0000
Au   12.2347   -8.1565    4.0782
Au   12.2347   -8.1565    8.1565
Au   12.2347   -6.1173   -6.1173
Au   12.2347   -6.1173   -2.0391
Au   12.2347   -6.1173    2.0391
Au   12.2347   -6.1173    6.1173
Au   12.2347   -4.0782   -8.1565
Au   12.2347   -4.0782   -4.0782
Au   12.2347   -4.0782    0.0000
Au   12.2347   -4.0782    4.0782
Au   12.2347   -4.0782    8.1565
Au   12.2347   -2.0391   -6.1173
Au   12.2347   -2.0391   -2.0391
Au   12.2347   -2.0391    2.0391
Au   12.2347   -2.0391    6.1173
Au   12.2347    0.0000   -8.1565
Au   12.2347    0.0000   -4.0782
Au   12.2347    0.0000    0.0000
Au   12.2347    0.0000    4.0782
Au   12.2347    0.0000    8.1565
Au   12.2347    2.0391   -6.1173
Au   12.2347    2.0391   -2.0391
Au   12.2347    2.0391    2.0391
Au   12.2347    2.0391    6.1173
Au   12.2347    4.0782   -8.1565
Au   12.2347    4.0782   -4.0782
Au   12.2347    4.0782    0.0000
Au   12.2347    4.0782    4.0782
Au   12.2347    4.0782    8.1565
Au   12.2347    6.1173   -6.1173
Au   12.2347    6.1173   -2.0391
Au   12.2347    6.1173    2.0391
Au   12.2347    6.1173    6.1173
Au   12.2347    8.1565   -8.1565
Au   12.2347    8.1565   -4.0782
Au   12.2347    8.1565    0.0000
Au   12.2347    8.1565    4.0782
Au   12.2347    8.1565    8.1565
Au   14.2738   -6.1173   -4.0782
Au   14.2738   -6.1173    0.0000
Au   14.2738   -6.1173    4.0782
Au   14.2738   -4.0782   -6.1173
Au   14.2738   -4.0782   -2.0391
Au   14.2738   -4.0782    2.0391
Au   14.2738   -4.0782    6.1173
Au   14.2738   -2.0391   -4.0782
Au   14.2738   -2.0391    0.0000
Au   14.2738   -2.0391    4.0782
Au   14.2738    0.0000   -6.1173
Au   14.2738    0.0000   -2.0391
Au   14.2738    0.0000    2.0391
Au   14.2738    0.0000    6.1173
Au   14.2738    2.0391   -4.0782
Au   14.2738    2.0391    0.0000
Au   14.2738    2.0391    4.0782
Au   14.2738    4.0782   -6.1173
Au   14.2738    4.0782   -2.0391
Au   14.2738    4.0782    2.0391
Au   14.2738    4.0782    6.1173
Au   14.2738    6.1173   -4.0782
Au   14.2738    6.1173    0.0000
Au   14.2738    6.1173    4.0782
